THERMO ALL
   300.000  1000.000  5000.000
HNNO              103190H   1N   2O   1     G  0300.00   4000.00  1500.00      1
 0.06991217E+02 0.01875970E-01-0.02124584E-05-0.06710472E-09 0.12305080E-13    2
 0.02497566E+06-0.11235229E+02 0.02238298E+02 0.13591997E-01-0.11798728E-04    3
 0.05392970E-07-0.10108589E-11 0.02660258E+06 0.14136789E+02                   4
H2NO              102290H   2N   1O   1     G  0300.00   4000.00  1500.00      1
 0.05673346E+02 0.02298836E-01-0.01774445E-05-0.11034818E-09 0.01859762E-12    2
 0.05569325E+05-0.06153540E+02 0.02530589E+02 0.08596035E-01-0.05471030E-04    3
 0.02276249E-07-0.04648073E-11 0.06868030E+05 0.11266506E+02                   4
HNOH              102290H   2N   1O   1     G  0300.00   4000.00  1500.00      1
 0.06396134E+02 0.01821067E-01-0.01870891E-05-0.07844471E-09 0.14448555E-13    2
 0.07859615E+05-0.10404785E+02 0.02125274E+02 0.10662818E-01-0.07602588E-04    3
 0.03081641E-07-0.05726498E-11 0.09553544E+05 0.13096718E+02                   4
NH2OH  WRA032798        N   1H   3O   1    0G   200.000  6000.000  1000.0      1
 3.98241375E+00 7.99825642E-03-2.74883544E-06 4.22874218E-10-2.42498273E-14    2
-6.44279418E+03 3.22666600E+00 2.67285464E+00 1.13645347E-02-4.92179546E-06    3
-9.18041765E-11 6.06669407E-13-6.08956846E+03 1.00068112E+01-4.83091791E+00    4
N                 L 6/88N   1    0    0    0G   200.000  6000.00  1000.0       1
 0.24159429E+01 0.17489065E-03-0.11902369E-06 0.30226244E-10-0.20360983E-14    2
 0.56133775E+05 0.46496095E+01 0.25000000E+01 0.00000000E+00 0.00000000E+00    3
 0.00000000E+00 0.00000000E+00 0.56104638E+05 0.41939088E+01 0.56850013E+05    4
N2O4              RUS 89N   2O   4    0    0G   200.000  6000.000  1000.0      1
 1.15752899E+01 4.01616086E-03-1.57178323E-06 2.68274309E-10-1.66922019E-14    2
-2.92191226E+03-3.19488439E+01 3.02002308E+00 2.95904321E-02-3.01342458E-05    3
 1.42360407E-08-2.44100049E-12-6.40040162E+02 1.18059606E+01 1.33632866E+03    4
N2O3              L 4/90N   2O   3    0    0G   200.000  6000.000  1000.0      1
 9.08583845E+00 3.37756330E-03-1.31583890E-06 2.30762329E-10-1.47151267E-14    2
 7.27160146E+03-1.55361904E+01 5.81083964E+00 1.43330962E-02-1.96208597E-05    3
 1.73060735E-08-6.46553954E-12 8.19184453E+03 1.20461321E+00 1.04192062E+04    4
O2                      O   2               G   300      5000     1000         1
 0.03697578E+02 0.06135197E-02-0.01258842E-05 0.01775281E-09-0.01136435E-13    2
-0.01233930E+05 0.03189166E+02 0.03212936E+02 0.01127486E-01-0.05756150E-05    3
 0.01313877E-07-0.08768554E-11-0.01005249E+05 0.06034738E+02                   4
! OH* Petersen
OH*               121286O   1H   1          G  0300.00   5000.00  1000.00      1
 0.02882730E+02 0.10139743E-02-0.02276877E-05 0.02174683E-09-0.05126305E-14    2
 5.02650000E+04 0.05595712E+02 0.03637266E+02 0.01850910E-02-0.16761646E-05    3
 0.02387202E-07-0.08431442E-11 5.00213000E+04 0.13588605E+01                   4
H2O                20387H   2O   1          G  0300.00   5000.00  1000.00      1
 0.02672146E+02 0.03056293E-01-0.08730260E-05 0.01200996E-08-0.06391618E-13    2
-0.02989921E+06 0.06862817E+02 0.03386842E+02 0.03474982E-01-0.06354696E-04    3
 0.06968581E-07-0.02506588E-10-0.03020811E+06 0.02590233E+02                   4
H                 120186H   1               G  0300.00   5000.00  1000.00      1
 0.02500000E+02 0.00000000E+00 0.00000000E+00 0.00000000E+00 0.00000000E+00    2
 0.02547163E+06-0.04601176E+01 0.02500000E+02 0.00000000E+00 0.00000000E+00    3
 0.00000000E+00 0.00000000E+00 0.02547163E+06-0.04601176E+01                   4
O                 120186O   1               G  0300.00   5000.00  1000.00      1
 0.02542060E+02-0.02755062E-03-0.03102803E-07 0.04551067E-10-0.04368052E-14    2
 0.02923080E+06 0.04920308E+02 0.02946429E+02-0.01638166E-01 0.02421032E-04    3
-0.01602843E-07 0.03890696E-11 0.02914764E+06 0.02963995E+02                   4
OH                121286O   1H   1          G  0300.00   5000.00  1000.00      1
 0.02882730E+02 0.01013974E-01-0.02276877E-05 0.02174684E-09-0.05126305E-14    2
 0.03886888E+05 0.05595712E+02 0.03637266E+02 0.01850910E-02-0.01676165E-04    3
 0.02387203E-07-0.08431442E-11 0.03606782E+05 0.01358860E+02                   4
HO2               L 5/89H   1O   2          G  0200.000  3500.00  1000.00      1
 4.01721090E+00 2.23982013E-03-6.33658150E-07 1.14246370E-10-1.07908535E-14    2
 1.11856713E+02 3.78510215E+00 4.30179801E+00-4.74912051E-03 2.11582891E-05    3
-2.42763894E-08 9.29225124E-12 2.94808040E+02 3.71666245E+00 1.00021620E+04    4
H2O2              120186H   2O   2          G  0300.00   5000.00  1000.00      1
 0.04573167E+02 0.04336136E-01-0.01474689E-04 0.02348904E-08-0.01431654E-12    2
-0.01800696E+06 0.05011370E+01 0.03388754E+02 0.06569226E-01-0.01485013E-05    3
-0.04625806E-07 0.02471515E-10-0.01766315E+06 0.06785363E+02                   4
NO                121286N   1O   1          G  0300.00   5000.00  1000.00      1
 0.03245435E+02 0.01269138E-01-0.05015890E-05 0.09169283E-09-0.06275419E-13    2
 0.09800840E+05 0.06417294E+02 0.03376542E+02 0.01253063E-01-0.03302751E-04    3
 0.05217810E-07-0.02446263E-10 0.09817961E+05 0.05829590E+02                   4
NO2               121286N   1O   2          G  0300.00   5000.00  1000.00      1
 0.04682859E+02 0.02462429E-01-0.01042259E-04 0.01976902E-08-0.01391717E-12    2
 0.02261292E+05 0.09885985E+01 0.02670600E+02 0.07838501E-01-0.08063865E-04    3
 0.06161715E-07-0.02320150E-10 0.02896291E+05 0.01161207E+03                   4
HNO               121286H   1N   1O   1     G  0300.00   5000.00  1000.00      1
 0.03615144E+02 0.03212486E-01-0.01260337E-04 0.02267298E-08-0.01536236E-12    2
 0.01066191E+06 0.04810264E+02 0.02784403E+02 0.06609646E-01-0.09300223E-04    3
 0.09437980E-07-0.03753146E-10 0.01091878E+06 0.09035629E+02                   4
HONO               31787H   1N   1O   2     G  0300.00   5000.00  1000.00      1
 0.05486893E+02 0.04218065E-01-0.01649143E-04 0.02971877E-08-0.02021148E-12    2
-0.01126865E+06-0.02997002E+02 0.02290413E+02 0.01409922E+00-0.01367872E-03    3
 0.07498780E-07-0.01876905E-10-0.01043195E+06 0.01328077E+03                   4
N2O               121286N   2O   1          G  0300.00   5000.00  1000.00      1
 0.04718977E+02 0.02873714E-01-0.01197496E-04 0.02250552E-08-0.01575337E-12    2
 0.08165811E+05-0.01657250E+02 0.02543058E+02 0.09492193E-01-0.09792775E-04    3
 0.06263845E-07-0.01901826E-10 0.08765100E+05 0.09511222E+02                   4
NO3               121286N   1O   3          G  0300.00   5000.00  1000.00      1
 0.07120307E+02 0.03246228E-01-0.01431613E-04 0.02797053E-08-0.02013008E-12    2
 0.05864479E+05-0.01213730E+03 0.01221076E+02 0.01878797E+00-0.01344321E-03    3
 0.01274601E-07 0.01354060E-10 0.07473144E+05 0.01840203E+03                   4
HNO3              121286H   1N   1O   3     G  0300.00   5000.00  1000.00      1
 0.07003845E+02 0.05811493E-01-0.02333789E-04 0.04288814E-08-0.02959385E-12    2
-0.01889952E+06-0.01047863E+03 0.01353185E+02 0.02220025E+00-0.01978812E-03    3
 0.08773908E-07-0.01658384E-10-0.01738563E+06 0.01851868E+03                   4
NH                 31387H   1N   1          G  0300.00   5000.00  1000.00      1
 0.02760249E+02 0.01375346E-01-0.04451914E-05 0.07692792E-09-0.05017592E-13    2
 0.04207828E+06 0.05857199E+02 0.03339758E+02 0.01253009E-01-0.03491646E-04    3
 0.04218812E-07-0.01557618E-10 0.04185047E+06 0.02507181E+02                   4
NH2               121686N   1H   2          G  0300.00   5000.00  1000.00      1
 0.02961311E+02 0.02932699E-01-0.09063600E-05 0.01617257E-08-0.01204200E-12    2
 0.02191977E+06 0.05777878E+02 0.03432493E+02 0.03299540E-01-0.06613600E-04    3
 0.08590947E-07-0.03572047E-10 0.02177228E+06 0.03090111E+02                   4
NH3               121386N   1H   3          G  0300.00   5000.00  1000.00      1
 0.02461904E+02 0.06059166E-01-0.02004977E-04 0.03136003E-08-0.01938317E-12    2
-0.06493270E+05 0.07472097E+02 0.02204352E+02 0.01011476E+00-0.01465265E-03    3
 0.01447235E-06-0.05328509E-10-0.06525488E+05 0.08127138E+02                   4
N2                121286N   2               G  0300.00   5000.00  1000.00      1
 0.02926640E+02 0.01487977E-01-0.05684761E-05 0.01009704E-08-0.06753351E-13    2
-0.09227977E+04 0.05980528E+02 0.03298677E+02 0.01408240E-01-0.03963222E-04    3
 0.05641515E-07-0.02444855E-10-0.01020900E+05 0.03950372E+02                   4
NNH               120186N   2H   1          G  0250.00   4000.00  1000.00      1
 0.04415342E+02 0.01614388E-01-0.01632894E-05-0.08559846E-09 0.01614791E-12    2
 0.02788029E+06 0.09042888E+01 0.03501344E+02 0.02053587E-01 0.07170410E-05    3
 0.04921348E-08-0.09671170E-11 0.02833347E+06 0.06391837E+02                   4
N2H2              121286N   2H   2          G  0300.00   5000.00  1000.00      1
 0.03371185E+02 0.06039968E-01-0.02303854E-04 0.04062789E-08-0.02713144E-12    2
 0.02418172E+06 0.04980585E+02 0.01617999E+02 0.01306312E+00-0.01715712E-03    3
 0.01605608E-06-0.06093639E-10 0.02467526E+06 0.01379467E+03                   4
N2H3              120186N   2H   3          G  0300.00   5000.00  1000.00      1
 0.04441846E+02 0.07214271E-01-0.02495684E-04 0.03920565E-08-0.02298950E-12    2
 0.01664221E+06-0.04275205E+01 0.03174204E+02 0.04715907E-01 0.01334867E-03    3
-0.01919685E-06 0.07487564E-10 0.01727270E+06 0.07557224E+02                   4
N2H4              121286N   2H   4          G  0300.00   5000.00  1000.00      1
 0.04977317E+02 0.09595519E-01-0.03547639E-04 0.06124299E-08-0.04029795E-12    2
 0.09341219E+05-0.02962990E+02 0.06442606E+00 0.02749730E+00-0.02899451E-03    3
 0.01745240E-06-0.04422282E-10 0.01045192E+06 0.02127789E+03                   4
H2                121286H   2               G  0300.00   5000.00  1000.00      1
 0.02991423E+02 0.07000644E-02-0.05633829E-06-0.09231578E-10 0.01582752E-13    2
-0.08350340E+04-0.01355110E+02 0.03298124E+02 0.08249442E-02-0.08143015E-05    3
-0.09475434E-09 0.04134872E-11-0.01012521E+05-0.03294094E+02                   4
AR                120186AR  1               G  0300.00   5000.00  1000.00      1
 0.02500000E+02 0.00000000E+00 0.00000000E+00 0.00000000E+00 0.00000000E+00    2
-0.07453750E+04 0.04366001E+02 0.02500000E+02 0.00000000E+00 0.00000000E+00    3
 0.00000000E+00 0.00000000E+00-0.07453750E+04 0.04366001E+02                   4
END